%mem=16GB
%nprocshared=8
%chk=C6H6_6.chk
# opt hf/6-31g geom=connectivity

Title Card Required

0 1
 C                 -1.31336401    0.16129032    0.00000000
 C                  0.08179599    0.16129032    0.00000000
 C                  0.77933399    1.36904132    0.00000000
 C                  0.08167999    2.57755032   -0.00119900
 C                 -1.31314501    2.57747232   -0.00167800
 C                 -2.01074601    1.36926632   -0.00068200
 H                 -1.86312301   -0.79102668    0.00045000
 H                  0.63130399   -0.79122268    0.00131500
 H                  1.87901399    1.36912132    0.00063400
 H                  0.63187999    3.52969332   -0.00125800
 H                 -1.86326701    3.52975332   -0.00263100
 H                 -3.11035001    1.36944932   -0.00086200

 1 2 1.5 6 1.5 7 1.0
 2 3 1.5 8 1.0
 3 4 1.5 9 1.0
 4 5 1.5 10 1.0
 5 6 1.5 11 1.0
 6 12 1.0
 7
 8
 9
 10
 11
 12

