%mem=100GB
%nprocshared=48
%chk=C6H6_b3lyp_6+dp.chk
# opt b3lyp/6-31+g(d,p) geom=connectivity

Title Card Required

0 1
 C                 -0.80645159    0.89861750    0.00000000
 C                  0.58870841    0.89861750    0.00000000
 C                  1.28624641    2.10636850    0.00000000
 C                  0.58859241    3.31487750   -0.00119900
 C                 -0.80623259    3.31479950   -0.00167800
 C                 -1.50383359    2.10659350   -0.00068200
 H                 -1.35621059   -0.05369950    0.00045000
 H                  1.13821641   -0.05389550    0.00131500
 H                  2.38592641    2.10644850    0.00063400
 H                  1.13879241    4.26702050   -0.00125800
 H                 -1.35635459    4.26708050   -0.00263100
 H                 -2.60343759    2.10677650   -0.00086200

 1 2 1.5 6 1.5 7 1.0
 2 3 1.5 8 1.0
 3 4 1.5 9 1.0
 4 5 1.5 10 1.0
 5 6 1.5 11 1.0
 6 12 1.0
 7
 8
 9
 10
 11
 12

